pcf
* control data
             restart          estimation
        32        48        11         0         4
         1         1              single               point         1         0         0
   5.000000E+00 2.000000E+00 3.000000E-01 3.000000E-02 10
   1.000000E+01   1.000000E+01   1.000000E-03
   1.000000E-01   3
   10000   1.000000E-03   4   4   1.000000E-03   4
         1         1         1
* lsqr
  1
  0.0001  0.0001  28.0  28
  0
* parameter groups
PHEN  relative  1.0000000000E-02  0.0001  switch  2.0000000000E+00  parabolic
VERN  relative  1.0000000000E-02  0.0001  switch  2.0000000000E+00  parabolic
RUE  relative  1.0000000000E-02  0.0001  switch  2.0000000000E+00  parabolic
LEAF  relative  1.0000000000E-02  0.0001  switch  2.0000000000E+00  parabolic
LSEN  relative  1.0000000000E-02  0.0001  switch  2.0000000000E+00  parabolic
TILL  relative  1.0000000000E-02  0.0001  switch  2.0000000000E+00  parabolic
TDTH  relative  1.0000000000E-02  0.0001  switch  2.0000000000E+00  parabolic
ROOT  relative  1.0000000000E-02  0.0001  switch  2.0000000000E+00  parabolic
CANOPY  relative  1.0000000000E-02  0.0001  switch  2.0000000000E+00  parabolic
COMP  relative  1.0000000000E-02  0.0001  switch  2.0000000000E+00  parabolic
KILL  relative  1.0000000000E-02  0.0001  switch  2.0000000000E+00  parabolic
* parameter data
AWN                   none                  relative              5.0000000000E+00      0.0000000000E+00      1.0000000000E+01      CANOPY                1.0000000000E+00      0.0000000000E+00      1
GN%                   none                  relative              2.2000000000E+00      1.0000000000E+00      3.5000000000E+00      COMP                  1.0000000000E+00      0.0000000000E+00      1
GN1                   none                  relative              1.9000000000E+00      0.0000000000E+00      6.0000000000E+00      COMP                  1.0000000000E+00      0.0000000000E+00      1
HTS                   none                  relative              1.0000000000E+02      6.0000000000E+01      1.5000000000E+02      CANOPY                1.0000000000E+00      0.0000000000E+00      1
KCA                   none                  relative              8.5000000000E-01      6.5000000000E-01      9.5000000000E-01      CANOPY                1.0000000000E+00      0.0000000000E+00      1
LA1                   none                  relative              1.0000000000E+01      1.0000000000E+00      2.0000000000E+01      LEAF                  1.0000000000E+00      0.0000000000E+00      1
LA2                   none                  relative              4.0000000000E-01      1.0000000000E-01      3.0000000000E+00      LEAF                  1.0000000000E+00      0.0000000000E+00      1
LAF                   none                  relative              3.0000000000E-01      1.0000000000E-02      8.0000000000E-01      LEAF                  1.0000000000E+00      0.0000000000E+00      1
LS1                   none                  relative              6.1000000000E+00      5.5000000000E+00      6.5000000000E+00      LSEN                  1.0000000000E+00      0.0000000000E+00      1
LSP                   none                  relative              5.4000000000E+00      4.0000000000E+00      5.7000000000E+00      LSEN                  1.0000000000E+00      0.0000000000E+00      1
P1                    none                  relative              4.0000000000E+02      1.0000000000E+02      5.0000000000E+02      PHEN                  1.0000000000E+00      0.0000000000E+00      1
P2                    none                  relative              2.8000000000E+02      1.0000000000E+02      5.0000000000E+02      PHEN                  1.0000000000E+00      0.0000000000E+00      1
P2F                   none                  relative              2.5000000000E-01      0.0000000000E+00      6.0000000000E-01      PHEN                  1.0000000000E+00      0.0000000000E+00      1
P3                    none                  relative              2.0000000000E+02      1.0000000000E+02      5.0000000000E+02      PHEN                  1.0000000000E+00      0.0000000000E+00      1
P4                    none                  relative              2.6000000000E+02      1.0000000000E+02      5.0000000000E+02      PHEN                  1.0000000000E+00      0.0000000000E+00      1
P41                   none                  relative              1.0000000000E-01      5.0000000000E-02      5.0000000000E-01      PHEN                  1.0000000000E+00      0.0000000000E+00      1
P4F                   none                  relative              2.5000000000E-01      1.5000000000E-01      3.5000000000E-01      PHEN                  1.0000000000E+00      0.0000000000E+00      1
PA1                   none                  relative              2.5000000000E+00      1.0000000000E+00      6.0000000000E+00      RUE                   1.0000000000E+00      0.0000000000E+00      1
PAR                   none                  relative              2.0000000000E+00      1.0000000000E+00      6.0000000000E+00      RUE                   1.0000000000E+00      0.0000000000E+00      1
PHF                   none                  relative              1.0000000000E+00      1.0000000000E+00      1.6000000000E+00      LEAF                  1.0000000000E+00      0.0000000000E+00      1
PHL                   none                  relative              1.3000000000E+01      4.0000000000E+00      2.0000000000E+02      LEAF                  1.0000000000E+00      0.0000000000E+00      1
RDG                   none                  relative              3.0000000000E+00      1.0000000000E+00      5.0000000000E+00      ROOT                  1.0000000000E+00      0.0000000000E+00      1
RS%                   none                  relative              3.0000000000E+01      1.0000000000E+01      6.0000000000E+01      COMP                  1.0000000000E+00      0.0000000000E+00      1
SLA                   none                  relative              3.5000000000E+02      1.0000000000E+02      6.0000000000E+02      LEAF                  1.0000000000E+00      0.0000000000E+00      1
TD1                   none                  relative              6.0000000000E+00      2.0000000000E+00      6.0000000000E+00      TDTH                  1.0000000000E+00      0.0000000000E+00      1
TDF                   none                  relative              4.0000000000E+00      0.0000000000E+00      2.0000000000E+01      TDTH                  1.0000000000E+00      0.0000000000E+00      1
TDP                   none                  relative              2.8000000000E+00      1.5000000000E+00      4.0000000000E+00      TDTH                  1.0000000000E+00      0.0000000000E+00      1
TIF                   none                  relative              2.0000000000E+00      5.0000000000E-01      2.0000000000E+00      TILL                  1.0000000000E+00      0.0000000000E+00      1
TIL                   none                  relative              2.3000000000E+00      2.3000000000E+00      7.0000000000E+00      TILL                  1.0000000000E+00      0.0000000000E+00      1
TIP                   none                  relative              1.9500000000E+00      1.9500000000E+00      4.0000000000E+00      TILL                  1.0000000000E+00      0.0000000000E+00      1
TKF                   none                  relative              -2.0000000000E+01     -2.5000000000E+01     -1.0000000000E+01     KILL                  1.0000000000E+00      0.0000000000E+00      1
VEF                   none                  relative              6.0000000000E-01      0.0000000000E+00      1.0000000000E+00      VERN                  1.0000000000E+00      0.0000000000E+00      1
* observation groups
phenology
yield
lai
biomass
* observation data
 emergence_dap_3g5     7.000000       9.491580E-02  phenology
 anthesis_dap_3g5      100.0000       9.491580E-02  phenology
 maturity_dap_3g5      144.0000       9.491580E-02  phenology
 productwtkgdmhan_3g5  7020.000       6.839856E-05  yield
 productunitweigh_3g5 4.9000000E-02   6.839856E-05  yield
 product_number_n_3g5  14222.00       6.839856E-05  yield
 productharvestin_3g5 0.3400000       6.839856E-05  yield
 maximumleafareai_3g5  5.300000       0.315127      lai
 canopytopswtkgdm_3g5  20705.00       7.981504E-05  biomass
 vegetativewtkgdm_3g5  13685.00       7.981504E-05  biomass
 product_n_kgha_3g5    148.5000       6.839856E-05  yield
 product_n__3g5        2.100000       6.839856E-05  yield
 emergence_dap_3g6     7.000000       9.491580E-02  phenology
 anthesis_dap_3g6      100.0000       9.491580E-02  phenology
 maturity_dap_3g6      143.0000       9.491580E-02  phenology
 productwtkgdmhan_3g6  6947.000       6.839856E-05  yield
 productunitweigh_3g6 4.2000000E-02   6.839856E-05  yield
 product_number_n_3g6  16489.00       6.839856E-05  yield
 productharvestin_3g6 0.3900000       6.839856E-05  yield
 maximumleafareai_3g6  5.700000       0.315127      lai
 canopytopswtkgdm_3g6  17928.00       7.981504E-05  biomass
 vegetativewtkgdm_3g6  10981.00       7.981504E-05  biomass
 product_n_kgha_3g6    133.9000       6.839856E-05  yield
 product_n__3g6        1.900000       6.839856E-05  yield
 emergence_dap_3g8     7.000000       9.491580E-02  phenology
 anthesis_dap_3g8      104.0000       9.491580E-02  phenology
 maturity_dap_3g8      146.0000       9.491580E-02  phenology
 productwtkgdmhan_3g8  6393.000       6.839856E-05  yield
 productunitweigh_3g8 4.1000000E-02   6.839856E-05  yield
 product_number_n_3g8  15446.00       6.839856E-05  yield
 productharvestin_3g8 0.3100000       6.839856E-05  yield
 maximumleafareai_3g8  5.700000       0.315127      lai
 canopytopswtkgdm_3g8  20909.00       7.981504E-05  biomass
 vegetativewtkgdm_3g8  14516.00       7.981504E-05  biomass
 product_n_kgha_3g8    141.9000       6.839856E-05  yield
 product_n__3g8        2.200000       6.839856E-05  yield
 emergence_dap_3g9     7.000000       9.491580E-02  phenology
 anthesis_dap_3g9      101.0000       9.491580E-02  phenology
 maturity_dap_3g9      145.0000       9.491580E-02  phenology
 productwtkgdmhan_3g9  6560.000       6.839856E-05  yield
 productunitweigh_3g9 4.3000000E-02   6.839856E-05  yield
 product_number_n_3g9  15412.00       6.839856E-05  yield
 productharvestin_3g9 0.3300000       6.839856E-05  yield
 maximumleafareai_3g9  5.800000       0.315127      lai
 canopytopswtkgdm_3g9  20154.00       7.981504E-05  biomass
 vegetativewtkgdm_3g9  13594.00       7.981504E-05  biomass
 product_n_kgha_3g9    131.8000       6.839856E-05  yield
 product_n__3g9        2.000000       6.839856E-05  yield
* model command line
py C:/pest18/run_dssat.py
* model input/output
./CI0700\WHCER048_ECO.TPL C:/DSSAT48/Genotype/WHCER048.ECO
./CI0700\OVERVIEW.ins C:/DSSAT48/Wheat/OVERVIEW.OUT
