pcf
* control data
             restart          estimation
         7        15         5         0         4
         1         2              single               point         1         0         0
   5.000000E+00 2.000000E+00 3.000000E-01 3.000000E-02 10
   1.000000E+01   1.000000E+01   1.000000E-03
   1.000000E-01   3
      0   1.000000E-03   4   4   1.000000E-03   4
         1         1         1
* lsqr
  1
  0.0001  0.0001  28.0  28
  0
* parameter groups
P  relative  1.0000000000E-02  0.0001  switch  2.0000000000E+00  parabolic
P5  relative  1.0000000000E-02  0.0001  switch  2.0000000000E+00  parabolic
G  relative  1.0000000000E-02  0.0001  switch  2.0000000000E+00  parabolic
G3  relative  1.0000000000E-02  0.0001  switch  2.0000000000E+00  parabolic
PHINT  relative  1.0000000000E-02  0.0001  switch  2.0000000000E+00  parabolic
* parameter data
G1                    none                  relative              2.7000000000E+01      1.0000000000E+01      5.0000000000E+01      G                     1.0000000000E+00      0.0000000000E+00      1          
G2                    none                  relative              4.5000000000E+01      1.0000000000E+01      8.0000000000E+01      G                     1.0000000000E+00      0.0000000000E+00      1          
G3                    none                  relative              4.0000000000E+00      5.0000000000E-01      8.0000000000E+00      G3                    1.0000000000E+00      0.0000000000E+00      1          
P1D                   none                  relative              4.0000000000E+01      0.0000000000E+00      2.0000000000E+02      P                     1.0000000000E+00      0.0000000000E+00      1          
P1V                   none                  relative              2.0000000000E+00      0.0000000000E+00      6.0000000000E+01      P                     1.0000000000E+00      0.0000000000E+00      1          
P5                    none                  relative              5.7000000000E+02      1.0000000000E+02      9.9900000000E+02      P5                    1.0000000000E+00      0.0000000000E+00      1          
PHI                   none                  relative              1.0000000000E+02      3.0000000000E+01      1.5000000000E+02      PHINT                 1.0000000000E+00      0.0000000000E+00      1          
* observation groups
phenology            
yield                
lai                  
biomass              
* observation data
Emergence_DAP         7.0000000000E+00      1.0000000000E+00      phenology            
Anthesis_DAP          1.0100000000E+02      1.0000000000E+00      phenology            
Maturity_DAP          1.4500000000E+02      1.0000000000E+00      phenology            
Productwtkgdmhanolos  6.5600000000E+03      1.0000000000E+00      yield                
Productunitweightgdm  4.3000000000E-02      1.0000000000E+00      yield                
Product_number_nom2   1.5412000000E+04      1.0000000000E+00      yield                
Productharvestindexr  3.3000000000E-01      1.0000000000E+00      yield                
Maximumleafareaindex  5.8000000000E+00      1.0000000000E+00      lai                  
Canopytopswtkgdmha    2.0154000000E+04      1.0000000000E+00      biomass              
Vegetativewtkgdmha    1.3594000000E+04      1.0000000000E+00      biomass              
Product_N_kgha        1.3180000000E+02      1.0000000000E+00      yield                
Product_N_            2.0000000000E+00      1.0000000000E+00      yield                
CWAD_2023012          2.1100000000E+03      1.0000000000E+00      biomass              
CWAD_2023069          1.1317000000E+04      1.0000000000E+00      biomass              
CWAD_2023107          2.0154000000E+04      1.0000000000E+00      biomass              
* model command line
py C:/pest18/run_dssat.py
* model input/output
./ENTRY9\WHCER048_CUL.TPL C:/DSSAT48/Genotype/WHCER048.CUL
./ENTRY9\OVERVIEW.ins C:/DSSAT48/Wheat/OVERVIEW.OUT
./ENTRY9\PlantGro.ins C:/DSSAT48/Wheat/PlantGro.OUT
