pcf
* control data
             restart          estimation
        32        36        11         0         4
         1         1              single               point         1         0         0
   5.000000E+00 2.000000E+00 3.000000E-01 3.000000E-02 10
   1.000000E+01   1.000000E+01   1.000000E-03
   1.000000E-01   3
      0   1.000000E-03   4   4   1.000000E-03   4
         1         1         1
* lsqr
  1
  0.0001  0.0001  28.0  28
  0
* parameter groups
PHEN  relative  1.0000000000E-02  0.0001  switch  2.0000000000E+00  parabolic
VERN  relative  1.0000000000E-02  0.0001  switch  2.0000000000E+00  parabolic
RUE  relative  1.0000000000E-02  0.0001  switch  2.0000000000E+00  parabolic
LEAF  relative  1.0000000000E-02  0.0001  switch  2.0000000000E+00  parabolic
LSEN  relative  1.0000000000E-02  0.0001  switch  2.0000000000E+00  parabolic
TILL  relative  1.0000000000E-02  0.0001  switch  2.0000000000E+00  parabolic
TDTH  relative  1.0000000000E-02  0.0001  switch  2.0000000000E+00  parabolic
ROOT  relative  1.0000000000E-02  0.0001  switch  2.0000000000E+00  parabolic
CANOPY  relative  1.0000000000E-02  0.0001  switch  2.0000000000E+00  parabolic
COMP  relative  1.0000000000E-02  0.0001  switch  2.0000000000E+00  parabolic
KILL  relative  1.0000000000E-02  0.0001  switch  2.0000000000E+00  parabolic
* parameter data
AWN                   none                  relative              5.0000000000E+00      0.0000000000E+00      1.0000000000E+01      CANOPY                1.0000000000E+00      0.0000000000E+00      1          
GN%                   none                  relative              2.2000000000E+00      1.0000000000E+00      3.5000000000E+00      COMP                  1.0000000000E+00      0.0000000000E+00      1          
GN1                   none                  relative              1.9000000000E+00      0.0000000000E+00      6.0000000000E+00      COMP                  1.0000000000E+00      0.0000000000E+00      1          
HTS                   none                  relative              1.0000000000E+02      6.0000000000E+01      1.5000000000E+02      CANOPY                1.0000000000E+00      0.0000000000E+00      1          
KCA                   none                  relative              8.5000000000E-01      6.5000000000E-01      9.5000000000E-01      CANOPY                1.0000000000E+00      0.0000000000E+00      1          
LA1                   none                  relative              1.0000000000E+01      1.0000000000E+00      2.0000000000E+01      LEAF                  1.0000000000E+00      0.0000000000E+00      1          
LA2                   none                  relative              4.0000000000E-01      1.0000000000E-01      3.0000000000E+00      LEAF                  1.0000000000E+00      0.0000000000E+00      1          
LAF                   none                  relative              3.0000000000E-01      1.0000000000E-02      8.0000000000E-01      LEAF                  1.0000000000E+00      0.0000000000E+00      1          
LS1                   none                  relative              6.1000000000E+00      5.5000000000E+00      6.5000000000E+00      LSEN                  1.0000000000E+00      0.0000000000E+00      1          
LSP                   none                  relative              5.4000000000E+00      4.0000000000E+00      5.7000000000E+00      LSEN                  1.0000000000E+00      0.0000000000E+00      1          
P1                    none                  relative              4.0000000000E+02      1.0000000000E+02      5.0000000000E+02      PHEN                  1.0000000000E+00      0.0000000000E+00      1          
P2                    none                  relative              2.8000000000E+02      1.0000000000E+02      5.0000000000E+02      PHEN                  1.0000000000E+00      0.0000000000E+00      1          
P2F                   none                  relative              2.5000000000E-01      0.0000000000E+00      6.0000000000E-01      PHEN                  1.0000000000E+00      0.0000000000E+00      1          
P3                    none                  relative              2.0000000000E+02      1.0000000000E+02      5.0000000000E+02      PHEN                  1.0000000000E+00      0.0000000000E+00      1          
P4                    none                  relative              2.6000000000E+02      1.0000000000E+02      5.0000000000E+02      PHEN                  1.0000000000E+00      0.0000000000E+00      1          
P41                   none                  relative              1.0000000000E-01      5.0000000000E-02      5.0000000000E-01      PHEN                  1.0000000000E+00      0.0000000000E+00      1          
P4F                   none                  relative              2.5000000000E-01      1.5000000000E-01      3.5000000000E-01      PHEN                  1.0000000000E+00      0.0000000000E+00      1          
PA1                   none                  relative              2.5000000000E+00      1.0000000000E+00      6.0000000000E+00      RUE                   1.0000000000E+00      0.0000000000E+00      1          
PAR                   none                  relative              2.0000000000E+00      1.0000000000E+00      6.0000000000E+00      RUE                   1.0000000000E+00      0.0000000000E+00      1          
PHF                   none                  relative              1.0000000000E+00      1.0000000000E+00      1.6000000000E+00      LEAF                  1.0000000000E+00      0.0000000000E+00      1          
PHL                   none                  relative              1.3000000000E+01      4.0000000000E+00      2.0000000000E+02      LEAF                  1.0000000000E+00      0.0000000000E+00      1          
RDG                   none                  relative              3.0000000000E+00      1.0000000000E+00      5.0000000000E+00      ROOT                  1.0000000000E+00      0.0000000000E+00      1          
RS%                   none                  relative              3.0000000000E+01      1.0000000000E+01      6.0000000000E+01      COMP                  1.0000000000E+00      0.0000000000E+00      1          
SLA                   none                  relative              3.5000000000E+02      1.0000000000E+02      6.0000000000E+02      LEAF                  1.0000000000E+00      0.0000000000E+00      1          
TD1                   none                  relative              6.0000000000E+00      2.0000000000E+00      6.0000000000E+00      TDTH                  1.0000000000E+00      0.0000000000E+00      1          
TDF                   none                  relative              4.0000000000E+00      0.0000000000E+00      2.0000000000E+01      TDTH                  1.0000000000E+00      0.0000000000E+00      1          
TDP                   none                  relative              2.8000000000E+00      1.5000000000E+00      4.0000000000E+00      TDTH                  1.0000000000E+00      0.0000000000E+00      1          
TIF                   none                  relative              2.0000000000E+00      5.0000000000E-01      2.0000000000E+00      TILL                  1.0000000000E+00      0.0000000000E+00      1          
TIL                   none                  relative              2.3000000000E+00      2.3000000000E+00      7.0000000000E+00      TILL                  1.0000000000E+00      0.0000000000E+00      1          
TIP                   none                  relative              1.9500000000E+00      1.9500000000E+00      4.0000000000E+00      TILL                  1.0000000000E+00      0.0000000000E+00      1          
TKF                   none                  relative              -2.0000000000E+01     -2.5000000000E+01     -1.0000000000E+01     KILL                  1.0000000000E+00      0.0000000000E+00      1          
VEF                   none                  relative              6.0000000000E-01      0.0000000000E+00      1.0000000000E+00      VERN                  1.0000000000E+00      0.0000000000E+00      1          
* observation groups
phenology            
yield                
lai                  
biomass              
* observation data
Emergence_DAP_3G11    7.0000000000E+00      1.0000000000E+00      phenology            
Anthesis_DAP_3G11     9.3000000000E+01      1.0000000000E+00      phenology            
Maturity_DAP_3G11     1.3500000000E+02      1.0000000000E+00      phenology            
Productwtkgdmha_3G11  6.3500000000E+03      1.0000000000E+00      yield                
Productunitweig_3G11  5.0000000000E-02      1.0000000000E+00      yield                
Product_number__3G11  1.2684000000E+04      1.0000000000E+00      yield                
Productharvesti_3G11  4.0000000000E-01      1.0000000000E+00      yield                
Maximumleafarea_3G11  5.7000000000E+00      1.0000000000E+00      lai                  
Canopytopswtkgd_3G11  1.5840000000E+04      1.0000000000E+00      biomass              
Vegetativewtkgd_3G11  9.4900000000E+03      1.0000000000E+00      biomass              
Product_N_kgha_3G11   1.3070000000E+02      1.0000000000E+00      yield                
Product_N__3G11       2.1000000000E+00      1.0000000000E+00      yield                
Emergence_DAP_3G12    7.0000000000E+00      1.0000000000E+00      phenology            
Anthesis_DAP_3G12     9.6000000000E+01      1.0000000000E+00      phenology            
Maturity_DAP_3G12     1.3900000000E+02      1.0000000000E+00      phenology            
Productwtkgdmha_3G12  6.4170000000E+03      1.0000000000E+00      yield                
Productunitweig_3G12  5.3000000000E-02      1.0000000000E+00      yield                
Product_number__3G12  1.2195000000E+04      1.0000000000E+00      yield                
Productharvesti_3G12  3.9000000000E-01      1.0000000000E+00      yield                
Maximumleafarea_3G12  5.7000000000E+00      1.0000000000E+00      lai                  
Canopytopswtkgd_3G12  1.6423000000E+04      1.0000000000E+00      biomass              
Vegetativewtkgd_3G12  1.0006000000E+04      1.0000000000E+00      biomass              
Product_N_kgha_3G12   1.2500000000E+02      1.0000000000E+00      yield                
Product_N__3G12       1.9000000000E+00      1.0000000000E+00      yield                
Emergence_DAP_3G13    7.0000000000E+00      1.0000000000E+00      phenology            
Anthesis_DAP_3G13     9.6000000000E+01      1.0000000000E+00      phenology            
Maturity_DAP_3G13     1.3800000000E+02      1.0000000000E+00      phenology            
Productwtkgdmha_3G13  6.7130000000E+03      1.0000000000E+00      yield                
Productunitweig_3G13  5.3000000000E-02      1.0000000000E+00      yield                
Product_number__3G13  1.2672000000E+04      1.0000000000E+00      yield                
Productharvesti_3G13  4.2000000000E-01      1.0000000000E+00      yield                
Maximumleafarea_3G13  5.7000000000E+00      1.0000000000E+00      lai                  
Canopytopswtkgd_3G13  1.6001000000E+04      1.0000000000E+00      biomass              
Vegetativewtkgd_3G13  9.2880000000E+03      1.0000000000E+00      biomass              
Product_N_kgha_3G13   1.3970000000E+02      1.0000000000E+00      yield                
Product_N__3G13       2.1000000000E+00      1.0000000000E+00      yield                
* model command line
py C:/pest18/run_dssat.py
* model input/output
./CI0602\WHCER048_ECO.TPL C:/DSSAT48/Genotype/WHCER048.ECO
./CI0602\OVERVIEW.ins C:/DSSAT48/Wheat/OVERVIEW.OUT
