pcf
* control data
             restart          estimation
        32        36        11         0         4
         1         1              single               point         1         0         0
   5.000000E+00 2.000000E+00 3.000000E-01 3.000000E-02 10
   1.000000E+01   1.000000E+01   1.000000E-03
   1.000000E-01   3
   10000   1.000000E-03   4   4   1.000000E-03   4
         1         1         1
* lsqr
  1
  0.0001  0.0001  28.0  28
  0
* parameter groups
PHEN  relative  1.0000000000E-02  0.0001  switch  2.0000000000E+00  parabolic
VERN  relative  1.0000000000E-02  0.0001  switch  2.0000000000E+00  parabolic
RUE  relative  1.0000000000E-02  0.0001  switch  2.0000000000E+00  parabolic
LEAF  relative  1.0000000000E-02  0.0001  switch  2.0000000000E+00  parabolic
LSEN  relative  1.0000000000E-02  0.0001  switch  2.0000000000E+00  parabolic
TILL  relative  1.0000000000E-02  0.0001  switch  2.0000000000E+00  parabolic
TDTH  relative  1.0000000000E-02  0.0001  switch  2.0000000000E+00  parabolic
ROOT  relative  1.0000000000E-02  0.0001  switch  2.0000000000E+00  parabolic
CANOPY  relative  1.0000000000E-02  0.0001  switch  2.0000000000E+00  parabolic
COMP  relative  1.0000000000E-02  0.0001  switch  2.0000000000E+00  parabolic
KILL  relative  1.0000000000E-02  0.0001  switch  2.0000000000E+00  parabolic
* parameter data
AWN                   none                  relative              5.0000000000E+00      0.0000000000E+00      1.0000000000E+01      CANOPY                1.0000000000E+00      0.0000000000E+00      1
GN%                   none                  relative              2.2000000000E+00      1.0000000000E+00      3.5000000000E+00      COMP                  1.0000000000E+00      0.0000000000E+00      1
GN1                   none                  relative              1.9000000000E+00      0.0000000000E+00      6.0000000000E+00      COMP                  1.0000000000E+00      0.0000000000E+00      1
HTS                   none                  relative              1.0000000000E+02      6.0000000000E+01      1.5000000000E+02      CANOPY                1.0000000000E+00      0.0000000000E+00      1
KCA                   none                  relative              8.5000000000E-01      6.5000000000E-01      9.5000000000E-01      CANOPY                1.0000000000E+00      0.0000000000E+00      1
LA1                   none                  relative              1.0000000000E+01      1.0000000000E+00      2.0000000000E+01      LEAF                  1.0000000000E+00      0.0000000000E+00      1
LA2                   none                  relative              4.0000000000E-01      1.0000000000E-01      3.0000000000E+00      LEAF                  1.0000000000E+00      0.0000000000E+00      1
LAF                   none                  relative              3.0000000000E-01      1.0000000000E-02      8.0000000000E-01      LEAF                  1.0000000000E+00      0.0000000000E+00      1
LS1                   none                  relative              6.1000000000E+00      5.5000000000E+00      6.5000000000E+00      LSEN                  1.0000000000E+00      0.0000000000E+00      1
LSP                   none                  relative              5.4000000000E+00      4.0000000000E+00      5.7000000000E+00      LSEN                  1.0000000000E+00      0.0000000000E+00      1
P1                    none                  relative              4.0000000000E+02      1.0000000000E+02      5.0000000000E+02      PHEN                  1.0000000000E+00      0.0000000000E+00      1
P2                    none                  relative              2.8000000000E+02      1.0000000000E+02      5.0000000000E+02      PHEN                  1.0000000000E+00      0.0000000000E+00      1
P2F                   none                  relative              2.5000000000E-01      0.0000000000E+00      6.0000000000E-01      PHEN                  1.0000000000E+00      0.0000000000E+00      1
P3                    none                  relative              2.0000000000E+02      1.0000000000E+02      5.0000000000E+02      PHEN                  1.0000000000E+00      0.0000000000E+00      1
P4                    none                  relative              2.6000000000E+02      1.0000000000E+02      5.0000000000E+02      PHEN                  1.0000000000E+00      0.0000000000E+00      1
P41                   none                  relative              1.0000000000E-01      5.0000000000E-02      5.0000000000E-01      PHEN                  1.0000000000E+00      0.0000000000E+00      1
P4F                   none                  relative              2.5000000000E-01      1.5000000000E-01      3.5000000000E-01      PHEN                  1.0000000000E+00      0.0000000000E+00      1
PA1                   none                  relative              2.5000000000E+00      1.0000000000E+00      6.0000000000E+00      RUE                   1.0000000000E+00      0.0000000000E+00      1
PAR                   none                  relative              2.0000000000E+00      1.0000000000E+00      6.0000000000E+00      RUE                   1.0000000000E+00      0.0000000000E+00      1
PHF                   none                  relative              1.0000000000E+00      1.0000000000E+00      1.6000000000E+00      LEAF                  1.0000000000E+00      0.0000000000E+00      1
PHL                   none                  relative              1.3000000000E+01      4.0000000000E+00      2.0000000000E+02      LEAF                  1.0000000000E+00      0.0000000000E+00      1
RDG                   none                  relative              3.0000000000E+00      1.0000000000E+00      5.0000000000E+00      ROOT                  1.0000000000E+00      0.0000000000E+00      1
RS%                   none                  relative              3.0000000000E+01      1.0000000000E+01      6.0000000000E+01      COMP                  1.0000000000E+00      0.0000000000E+00      1
SLA                   none                  relative              3.5000000000E+02      1.0000000000E+02      6.0000000000E+02      LEAF                  1.0000000000E+00      0.0000000000E+00      1
TD1                   none                  relative              6.0000000000E+00      2.0000000000E+00      6.0000000000E+00      TDTH                  1.0000000000E+00      0.0000000000E+00      1
TDF                   none                  relative              4.0000000000E+00      0.0000000000E+00      2.0000000000E+01      TDTH                  1.0000000000E+00      0.0000000000E+00      1
TDP                   none                  relative              2.8000000000E+00      1.5000000000E+00      4.0000000000E+00      TDTH                  1.0000000000E+00      0.0000000000E+00      1
TIF                   none                  relative              2.0000000000E+00      5.0000000000E-01      2.0000000000E+00      TILL                  1.0000000000E+00      0.0000000000E+00      1
TIL                   none                  relative              2.3000000000E+00      2.3000000000E+00      7.0000000000E+00      TILL                  1.0000000000E+00      0.0000000000E+00      1
TIP                   none                  relative              1.9500000000E+00      1.9500000000E+00      4.0000000000E+00      TILL                  1.0000000000E+00      0.0000000000E+00      1
TKF                   none                  relative              -2.0000000000E+01     -2.5000000000E+01     -1.0000000000E+01     KILL                  1.0000000000E+00      0.0000000000E+00      1
VEF                   none                  relative              6.0000000000E-01      0.0000000000E+00      1.0000000000E+00      VERN                  1.0000000000E+00      0.0000000000E+00      1
* observation groups
phenology
yield
lai
biomass
* observation data
 emergence_dap_3g11    7.000000       4.772740E-02  phenology
 anthesis_dap_3g11     93.00000       4.772740E-02  phenology
 maturity_dap_3g11     135.0000       4.772740E-02  phenology
 productwtkgdmha_3g11  6350.000       5.766165E-05  yield
 productunitweig_3g11 5.0000000E-02   5.766165E-05  yield
 product_number__3g11  12684.00       5.766165E-05  yield
 productharvesti_3g11 0.4000000       5.766165E-05  yield
 maximumleafarea_3g11  5.700000       0.384900      lai
 canopytopswtkgd_3g11  15840.00       2.364165E-04  biomass
 vegetativewtkgd_3g11  9490.000       2.364165E-04  biomass
 product_n_kgha_3g11   130.7000       5.766165E-05  yield
 product_n__3g11       2.100000       5.766165E-05  yield
 emergence_dap_3g12    7.000000       4.772740E-02  phenology
 anthesis_dap_3g12     96.00000       4.772740E-02  phenology
 maturity_dap_3g12     139.0000       4.772740E-02  phenology
 productwtkgdmha_3g12  6417.000       5.766165E-05  yield
 productunitweig_3g12 5.3000000E-02   5.766165E-05  yield
 product_number__3g12  12195.00       5.766165E-05  yield
 productharvesti_3g12 0.3900000       5.766165E-05  yield
 maximumleafarea_3g12  5.700000       0.384900      lai
 canopytopswtkgd_3g12  16423.00       2.364165E-04  biomass
 vegetativewtkgd_3g12  10006.00       2.364165E-04  biomass
 product_n_kgha_3g12   125.0000       5.766165E-05  yield
 product_n__3g12       1.900000       5.766165E-05  yield
 emergence_dap_3g13    7.000000       4.772740E-02  phenology
 anthesis_dap_3g13     96.00000       4.772740E-02  phenology
 maturity_dap_3g13     138.0000       4.772740E-02  phenology
 productwtkgdmha_3g13  6713.000       5.766165E-05  yield
 productunitweig_3g13 5.3000000E-02   5.766165E-05  yield
 product_number__3g13  12672.00       5.766165E-05  yield
 productharvesti_3g13 0.4200000       5.766165E-05  yield
 maximumleafarea_3g13  5.700000       0.384900      lai
 canopytopswtkgd_3g13  16001.00       2.364165E-04  biomass
 vegetativewtkgd_3g13  9288.000       2.364165E-04  biomass
 product_n_kgha_3g13   139.7000       5.766165E-05  yield
 product_n__3g13       2.100000       5.766165E-05  yield
* model command line
py C:/pest18/run_dssat.py
* model input/output
./CI0602\WHCER048_ECO.TPL C:/DSSAT48/Genotype/WHCER048.ECO
./CI0602\OVERVIEW.ins C:/DSSAT48/Wheat/OVERVIEW.OUT
